*Heading
** Job name: Heat_Job Model name: Contact_Test
** Generated by: Abaqus/CAE 6.14-2
*Preprint, echo=NO, model=NO, history=NO, contact=NO
**
** PARTS
**
*Part, name=Block-1
*End Part
**  
*Part, name=Block-2
*End Part
**  
**
** ASSEMBLY
**
*Assembly, name=Assembly
**  
*Instance, name=Block-1-1, part=Block-1
*Node
      1,           0.,  0.275000006,          0.5
      2,           0.,         0.25,          0.5
      3,           0.,  0.224999994,          0.5
      4,           0.,  0.200000003,          0.5
      5,           0.,  0.174999997,          0.5
      6,           0.,  0.150000006,          0.5
      7,           0.,        0.125,          0.5
      8,           0.,  0.100000001,          0.5
      9,           0.,  0.075000003,          0.5
     10,           0., 0.0500000007,          0.5
     11,           0., 0.0250000004,          0.5
     12,           0.,           0.,          0.5
     13,           0., -0.0250000004,          0.5
     14,           0., -0.0500000007,          0.5
     15,           0., -0.075000003,          0.5
     16,           0., -0.100000001,          0.5
     17,           0.,       -0.125,          0.5
     18,           0., -0.150000006,          0.5
     19,           0., -0.174999997,          0.5
     20,           0., -0.200000003,          0.5
** ... 9241 like lines cut
*Element, type=DC3D8
   1,  442,  443,  464,  463,    1,    2,   23,   22
   2,  443,  444,  465,  464,    2,    3,   24,   23
   3,  444,  445,  466,  465,    3,    4,   25,   24
   4,  445,  446,  467,  466,    4,    5,   26,   25
   5,  446,  447,  468,  467,    5,    6,   27,   26
   6,  447,  448,  469,  468,    6,    7,   28,   27
   7,  448,  449,  470,  469,    7,    8,   29,   28
   8,  449,  450,  471,  470,    8,    9,   30,   29
   9,  450,  451,  472,  471,    9,   10,   31,   30
  10,  451,  452,  473,  472,   10,   11,   32,   31
  11,  452,  453,  474,  473,   11,   12,   33,   32
  12,  453,  454,  475,  474,   12,   13,   34,   33
  13,  454,  455,  476,  475,   13,   14,   35,   34
  14,  455,  456,  477,  476,   14,   15,   36,   35
  15,  456,  457,  478,  477,   15,   16,   37,   36
  16,  457,  458,  479,  478,   16,   17,   38,   37
  17,  458,  459,  480,  479,   17,   18,   39,   38
  18,  459,  460,  481,  480,   18,   19,   40,   39
  19,  460,  461,  482,  481,   19,   20,   41,   40
  20,  461,  462,  483,  482,   20,   21,   42,   41
** ... 7980 like lines cut
*Nset, nset=_PickedSet2, internal, generate
    1,  9261,     1
*Elset, elset=_PickedSet2, internal, generate
    1,  8000,     1
** Section: IN718_Section
*Solid Section, elset=_PickedSet2, material=IN718
,
*End Instance
**  
*Instance, name=Block-2-1, part=Block-2
          0.,      -0.0125,         -0.6
*Node
      1,           0.,  0.287499994,  0.600000024
      2,           0.,  0.262499988,  0.600000024
      3,           0.,  0.237499997,  0.600000024
      4,           0.,  0.212500006,  0.600000024
      5,           0.,       0.1875,  0.600000024
      6,           0.,  0.162499994,  0.600000024
      7,           0.,  0.137500003,  0.600000024
      8,           0.,  0.112499997,  0.600000024
      9,           0., 0.0874999985,  0.600000024
     10,           0.,       0.0625,  0.600000024
     11,           0., 0.0375000015,  0.600000024
     12,           0., 0.0125000002,  0.600000024
     13,           0., -0.0125000002,  0.600000024
     14,           0., -0.0375000015,  0.600000024
     15,           0.,      -0.0625,  0.600000024
     16,           0., -0.0874999985,  0.600000024
     17,           0., -0.112499997,  0.600000024
     18,           0., -0.137500003,  0.600000024
     19,           0., -0.162499994,  0.600000024
     20,           0.,      -0.1875,  0.600000024
** ... 11005 like lines cut
*Element, type=DC3D8
   1,   526,   527,   548,   547,     1,     2,    23,    22
   2,   527,   528,   549,   548,     2,     3,    24,    23
   3,   528,   529,   550,   549,     3,     4,    25,    24
   4,   529,   530,   551,   550,     4,     5,    26,    25
   5,   530,   531,   552,   551,     5,     6,    27,    26
   6,   531,   532,   553,   552,     6,     7,    28,    27
   7,   532,   533,   554,   553,     7,     8,    29,    28
   8,   533,   534,   555,   554,     8,     9,    30,    29
   9,   534,   535,   556,   555,     9,    10,    31,    30
  10,   535,   536,   557,   556,    10,    11,    32,    31
  11,   536,   537,   558,   557,    11,    12,    33,    32
  12,   537,   538,   559,   558,    12,    13,    34,    33
  13,   538,   539,   560,   559,    13,    14,    35,    34
  14,   539,   540,   561,   560,    14,    15,    36,    35
  15,   540,   541,   562,   561,    15,    16,    37,    36
  16,   541,   542,   563,   562,    16,    17,    38,    37
  17,   542,   543,   564,   563,    17,    18,    39,    38
  18,   543,   544,   565,   564,    18,    19,    40,    39
  19,   544,   545,   566,   565,    19,    20,    41,    40
  20,   545,   546,   567,   566,    20,    21,    42,    41
** ... 9580 like lines cut
*Nset, nset=_PickedSet2, internal, generate
     1,  11025,      1
*Elset, elset=_PickedSet2, internal, generate
    1,  9600,     1
** Section: IN718_Section
*Solid Section, elset=_PickedSet2, material=IN718
,
*End Instance
**  
*Nset, nset=All_Set, instance=Block-1-1, generate
    1,  9261,     1
*Nset, nset=All_Set, instance=Block-2-1, generate
     1,  11025,      1
*Elset, elset=All_Set, instance=Block-1-1, generate
    1,  8000,     1
*Elset, elset=All_Set, instance=Block-2-1, generate
    1,  9600,     1
*Elset, elset=BoxSectionSet_TEST, instance=Block-2-1, generate
  1,  20,   1
*Nset, nset=_PickedSet40, internal, instance=Block-1-1, generate
    1,  9261,     1
*Nset, nset=_PickedSet40, internal, instance=Block-2-1, generate
     1,  11025,      1
*Elset, elset=_PickedSet40, internal, instance=Block-1-1, generate
    1,  8000,     1
*Elset, elset=_PickedSet40, internal, instance=Block-2-1, generate
    1,  9600,     1
*Nset, nset=_PickedSet58, internal, instance=Block-1-1, generate
    1,  9241,    21
*Elset, elset=_PickedSet58, internal, instance=Block-1-1, generate
    1,  7981,    20
*Elset, elset=_Heat_Flux_Surface_S2, internal, instance=Block-1-1, generate
   1,  400,    1
*Surface, type=ELEMENT, name=Heat_Flux_Surface
_Heat_Flux_Surface_S2, S2
*Elset, elset=_Radiation_Surface_S1, internal, instance=Block-1-1, generate
 7601,  8000,     1
*Elset, elset=_Radiation_Surface_S6, internal, instance=Block-1-1, generate
    1,  7981,    20
*Elset, elset=_Radiation_Surface_S6, internal, instance=Block-2-1, generate
    1,  9581,    20
*Elset, elset=_Radiation_Surface_S4, internal, instance=Block-1-1, generate
   20,  8000,    20
*Elset, elset=_Radiation_Surface_S3, internal, instance=Block-1-1
    1,    2,    3,    4,    5,    6,    7,    8,    9,   10,   11,   12,   13,   14,   15,   16
   17,   18,   19,   20,  401,  402,  403,  404,  405,  406,  407,  408,  409,  410,  411,  412
  413,  414,  415,  416,  417,  418,  419,  420,  801,  802,  803,  804,  805,  806,  807,  808
  809,  810,  811,  812,  813,  814,  815,  816,  817,  818,  819,  820, 1201, 1202, 1203, 1204
 1205, 1206, 1207, 1208, 1209, 1210, 1211, 1212, 1213, 1214, 1215, 1216, 1217, 1218, 1219, 1220
 1601, 1602, 1603, 1604, 1605, 1606, 1607, 1608, 1609, 1610, 1611, 1612, 1613, 1614, 1615, 1616
 1617, 1618, 1619, 1620, 2001, 2002, 2003, 2004, 2005, 2006, 2007, 2008, 2009, 2010, 2011, 2012
 2013, 2014, 2015, 2016, 2017, 2018, 2019, 2020, 2401, 2402, 2403, 2404, 2405, 2406, 2407, 2408
 2409, 2410, 2411, 2412, 2413, 2414, 2415, 2416, 2417, 2418, 2419, 2420, 2801, 2802, 2803, 2804
 2805, 2806, 2807, 2808, 2809, 2810, 2811, 2812, 2813, 2814, 2815, 2816, 2817, 2818, 2819, 2820
 3201, 3202, 3203, 3204, 3205, 3206, 3207, 3208, 3209, 3210, 3211, 3212, 3213, 3214, 3215, 3216
 3217, 3218, 3219, 3220, 3601, 3602, 3603, 3604, 3605, 3606, 3607, 3608, 3609, 3610, 3611, 3612
 3613, 3614, 3615, 3616, 3617, 3618, 3619, 3620, 4001, 4002, 4003, 4004, 4005, 4006, 4007, 4008
 4009, 4010, 4011, 4012, 4013, 4014, 4015, 4016, 4017, 4018, 4019, 4020, 4401, 4402, 4403, 4404
 4405, 4406, 4407, 4408, 4409, 4410, 4411, 4412, 4413, 4414, 4415, 4416, 4417, 4418, 4419, 4420
 4801, 4802, 4803, 4804, 4805, 4806, 4807, 4808, 4809, 4810, 4811, 4812, 4813, 4814, 4815, 4816
 4817, 4818, 4819, 4820, 5201, 5202, 5203, 5204, 5205, 5206, 5207, 5208, 5209, 5210, 5211, 5212
 5213, 5214, 5215, 5216, 5217, 5218, 5219, 5220, 5601, 5602, 5603, 5604, 5605, 5606, 5607, 5608
 5609, 5610, 5611, 5612, 5613, 5614, 5615, 5616, 5617, 5618, 5619, 5620, 6001, 6002, 6003, 6004
 6005, 6006, 6007, 6008, 6009, 6010, 6011, 6012, 6013, 6014, 6015, 6016, 6017, 6018, 6019, 6020
** ... 5 like lines cut
*Surface, type=ELEMENT, name=Radiation_Surface
_Radiation_Surface_S1, S1
_Radiation_Surface_S6, S6
_Radiation_Surface_S4, S4
_Radiation_Surface_S3, S3
*Elset, elset=__PickedSurf42_S5, internal, instance=Block-1-1
  381,  382,  383,  384,  385,  386,  387,  388,  389,  390,  391,  392,  393,  394,  395,  396
  397,  398,  399,  400,  781,  782,  783,  784,  785,  786,  787,  788,  789,  790,  791,  792
  793,  794,  795,  796,  797,  798,  799,  800, 1181, 1182, 1183, 1184, 1185, 1186, 1187, 1188
 1189, 1190, 1191, 1192, 1193, 1194, 1195, 1196, 1197, 1198, 1199, 1200, 1581, 1582, 1583, 1584
 1585, 1586, 1587, 1588, 1589, 1590, 1591, 1592, 1593, 1594, 1595, 1596, 1597, 1598, 1599, 1600
 1981, 1982, 1983, 1984, 1985, 1986, 1987, 1988, 1989, 1990, 1991, 1992, 1993, 1994, 1995, 1996
 1997, 1998, 1999, 2000, 2381, 2382, 2383, 2384, 2385, 2386, 2387, 2388, 2389, 2390, 2391, 2392
 2393, 2394, 2395, 2396, 2397, 2398, 2399, 2400, 2781, 2782, 2783, 2784, 2785, 2786, 2787, 2788
 2789, 2790, 2791, 2792, 2793, 2794, 2795, 2796, 2797, 2798, 2799, 2800, 3181, 3182, 3183, 3184
 3185, 3186, 3187, 3188, 3189, 3190, 3191, 3192, 3193, 3194, 3195, 3196, 3197, 3198, 3199, 3200
 3581, 3582, 3583, 3584, 3585, 3586, 3587, 3588, 3589, 3590, 3591, 3592, 3593, 3594, 3595, 3596
 3597, 3598, 3599, 3600, 3981, 3982, 3983, 3984, 3985, 3986, 3987, 3988, 3989, 3990, 3991, 3992
 3993, 3994, 3995, 3996, 3997, 3998, 3999, 4000, 4381, 4382, 4383, 4384, 4385, 4386, 4387, 4388
 4389, 4390, 4391, 4392, 4393, 4394, 4395, 4396, 4397, 4398, 4399, 4400, 4781, 4782, 4783, 4784
 4785, 4786, 4787, 4788, 4789, 4790, 4791, 4792, 4793, 4794, 4795, 4796, 4797, 4798, 4799, 4800
 5181, 5182, 5183, 5184, 5185, 5186, 5187, 5188, 5189, 5190, 5191, 5192, 5193, 5194, 5195, 5196
 5197, 5198, 5199, 5200, 5581, 5582, 5583, 5584, 5585, 5586, 5587, 5588, 5589, 5590, 5591, 5592
 5593, 5594, 5595, 5596, 5597, 5598, 5599, 5600, 5981, 5982, 5983, 5984, 5985, 5986, 5987, 5988
 5989, 5990, 5991, 5992, 5993, 5994, 5995, 5996, 5997, 5998, 5999, 6000, 6381, 6382, 6383, 6384
 6385, 6386, 6387, 6388, 6389, 6390, 6391, 6392, 6393, 6394, 6395, 6396, 6397, 6398, 6399, 6400
** ... 5 like lines cut
*Surface, type=ELEMENT, name=_PickedSurf42, internal
__PickedSurf42_S5, S5
*Elset, elset=__PickedSurf43_S3, internal, instance=Block-2-1
    1,    2,    3,    4,    5,    6,    7,    8,    9,   10,   11,   12,   13,   14,   15,   16
   17,   18,   19,   20,  481,  482,  483,  484,  485,  486,  487,  488,  489,  490,  491,  492
  493,  494,  495,  496,  497,  498,  499,  500,  961,  962,  963,  964,  965,  966,  967,  968
  969,  970,  971,  972,  973,  974,  975,  976,  977,  978,  979,  980, 1441, 1442, 1443, 1444
 1445, 1446, 1447, 1448, 1449, 1450, 1451, 1452, 1453, 1454, 1455, 1456, 1457, 1458, 1459, 1460
 1921, 1922, 1923, 1924, 1925, 1926, 1927, 1928, 1929, 1930, 1931, 1932, 1933, 1934, 1935, 1936
 1937, 1938, 1939, 1940, 2401, 2402, 2403, 2404, 2405, 2406, 2407, 2408, 2409, 2410, 2411, 2412
 2413, 2414, 2415, 2416, 2417, 2418, 2419, 2420, 2881, 2882, 2883, 2884, 2885, 2886, 2887, 2888
 2889, 2890, 2891, 2892, 2893, 2894, 2895, 2896, 2897, 2898, 2899, 2900, 3361, 3362, 3363, 3364
 3365, 3366, 3367, 3368, 3369, 3370, 3371, 3372, 3373, 3374, 3375, 3376, 3377, 3378, 3379, 3380
 3841, 3842, 3843, 3844, 3845, 3846, 3847, 3848, 3849, 3850, 3851, 3852, 3853, 3854, 3855, 3856
 3857, 3858, 3859, 3860, 4321, 4322, 4323, 4324, 4325, 4326, 4327, 4328, 4329, 4330, 4331, 4332
 4333, 4334, 4335, 4336, 4337, 4338, 4339, 4340, 4801, 4802, 4803, 4804, 4805, 4806, 4807, 4808
 4809, 4810, 4811, 4812, 4813, 4814, 4815, 4816, 4817, 4818, 4819, 4820, 5281, 5282, 5283, 5284
 5285, 5286, 5287, 5288, 5289, 5290, 5291, 5292, 5293, 5294, 5295, 5296, 5297, 5298, 5299, 5300
 5761, 5762, 5763, 5764, 5765, 5766, 5767, 5768, 5769, 5770, 5771, 5772, 5773, 5774, 5775, 5776
 5777, 5778, 5779, 5780, 6241, 6242, 6243, 6244, 6245, 6246, 6247, 6248, 6249, 6250, 6251, 6252
 6253, 6254, 6255, 6256, 6257, 6258, 6259, 6260, 6721, 6722, 6723, 6724, 6725, 6726, 6727, 6728
 6729, 6730, 6731, 6732, 6733, 6734, 6735, 6736, 6737, 6738, 6739, 6740, 7201, 7202, 7203, 7204
 7205, 7206, 7207, 7208, 7209, 7210, 7211, 7212, 7213, 7214, 7215, 7216, 7217, 7218, 7219, 7220
** ... 5 like lines cut
*Surface, type=ELEMENT, name=_PickedSurf43, internal
__PickedSurf43_S3, S3
*End Assembly
*Amplitude, name=Heat_Transfer_Amp, time=TOTAL TIME
             0.,              0.,            0.25,              1.,             1.5,              1.,              2.,              0.
             3.,              0.
** 
** MATERIALS
** 
*Material, name=IN718
*Conductivity
30.,
*Density
7850.,
*Specific Heat
720.,
** 
** INTERACTION PROPERTIES
** 
*Surface Interaction, name="Heat Contact"
1.,
*Gap Conductance
300.,    0.
  0., 1e-06
** 
** PHYSICAL CONSTANTS
** 
*Physical Constants, absolute zero=0., stefan boltzmann=5.67037e-08
** 
** PREDEFINED FIELDS
** 
** Name: Predefined Heat   Type: Temperature
*Initial Conditions, type=TEMPERATURE
_PickedSet40, 500.
