*Heading
** Job name: Heat_Job Model name: Contact_Test
** Generated by: Abaqus/CAE 6.14-2
*Preprint, echo=NO, model=NO, history=NO, contact=NO
**
** PARTS
**
*Part, name=Block-1
*End Part
**  
*Part, name=Block-2
*End Part
**  
**
** ASSEMBLY
**
*Assembly, name=Assembly
**  
*Instance, name=Block-1-1, part=Block-1
*Node
      1,           0.,  0.275000006,          0.5
      2,           0.,         0.25,          0.5
      3,           0.,  0.224999994,          0.5
      4,           0.,  0.200000003,          0.5
      5,           0.,  0.174999997,          0.5
      6,           0.,  0.150000006,          0.5
      7,           0.,        0.125,          0.5
      8,           0.,  0.100000001,          0.5
      9,           0.,  0.075000003,          0.5
     10,           0., 0.0500000007,          0.5
     11,           0., 0.0250000004,          0.5
     12,           0.,           0.,          0.5
     13,           0., -0.0250000004,          0.5
     14,           0., -0.0500000007,          0.5
     15,           0., -0.075000003,          0.5
     16,           0., -0.100000001,          0.5
     17,           0.,       -0.125,          0.5
     18,           0., -0.150000006,          0.5
     19,           0., -0.174999997,          0.5
     20,           0., -0.200000003,          0.5
** ... 9241 like lines cut
*Element, type=DC3D8
   1,  442,  443,  464,  463,    1,    2,   23,   22
   2,  443,  444,  465,  464,    2,    3,   24,   23
   3,  444,  445,  466,  465,    3,    4,   25,   24
   4,  445,  446,  467,  466,    4,    5,   26,   25
   5,  446,  447,  468,  467,    5,    6,   27,   26
   6,  447,  448,  469,  468,    6,    7,   28,   27
   7,  448,  449,  470,  469,    7,    8,   29,   28
   8,  449,  450,  471,  470,    8,    9,   30,   29
   9,  450,  451,  472,  471,    9,   10,   31,   30
  10,  451,  452,  473,  472,   10,   11,   32,   31
  11,  452,  453,  474,  473,   11,   12,   33,   32
  12,  453,  454,  475,  474,   12,   13,   34,   33
  13,  454,  455,  476,  475,   13,   14,   35,   34
  14,  455,  456,  477,  476,   14,   15,   36,   35
  15,  456,  457,  478,  477,   15,   16,   37,   36
  16,  457,  458,  479,  478,   16,   17,   38,   37
  17,  458,  459,  480,  479,   17,   18,   39,   38
  18,  459,  460,  481,  480,   18,   19,   40,   39
  19,  460,  461,  482,  481,   19,   20,   41,   40
  20,  461,  462,  483,  482,   20,   21,   42,   41
** ... 7980 like lines cut
*Nset, nset=_PickedSet2, internal, generate
    1,  9261,     1
*Elset, elset=_PickedSet2, internal, generate
    1,  8000,     1
** Section: IN718_Section
*Solid Section, elset=_PickedSet2, material=IN718
,
*End Instance
**  
*Instance, name=Block-2-1, part=Block-2
          0.,      -0.0125,         -0.6
*Node
      1,           0.,  0.287499994,  0.600000024
      2,           0.,  0.258088231,  0.600000024
      3,           0.,  0.228676468,  0.600000024
      4,           0.,  0.199264705,  0.600000024
      5,           0.,  0.169852942,  0.600000024
      6,           0.,  0.140441179,  0.600000024
      7,           0.,  0.111029409,  0.600000024
      8,           0., 0.0816176459,  0.600000024
      9,           0.,  0.052205883,  0.600000024
     10,           0., 0.0227941182,  0.600000024
     11,           0., -0.00661764713,  0.600000024
     12,           0., -0.0360294133,  0.600000024
     13,           0., -0.0654411763,  0.600000024
     14,           0., -0.0948529392,  0.600000024
     15,           0., -0.124264702,  0.600000024
     16,           0., -0.153676465,  0.600000024
     17,           0., -0.183088228,  0.600000024
     18,           0., -0.212500006,  0.600000024
     19,           0.,  0.287499994,  0.569999993
     20,           0.,  0.258088231,  0.569999993
** ... 6784 like lines cut
*Element, type=DC3D8
   1,  379,  380,  398,  397,    1,    2,   20,   19
   2,  380,  381,  399,  398,    2,    3,   21,   20
   3,  381,  382,  400,  399,    3,    4,   22,   21
   4,  382,  383,  401,  400,    4,    5,   23,   22
   5,  383,  384,  402,  401,    5,    6,   24,   23
   6,  384,  385,  403,  402,    6,    7,   25,   24
   7,  385,  386,  404,  403,    7,    8,   26,   25
   8,  386,  387,  405,  404,    8,    9,   27,   26
   9,  387,  388,  406,  405,    9,   10,   28,   27
  10,  388,  389,  407,  406,   10,   11,   29,   28
  11,  389,  390,  408,  407,   11,   12,   30,   29
  12,  390,  391,  409,  408,   12,   13,   31,   30
  13,  391,  392,  410,  409,   13,   14,   32,   31
  14,  392,  393,  411,  410,   14,   15,   33,   32
  15,  393,  394,  412,  411,   15,   16,   34,   33
  16,  394,  395,  413,  412,   16,   17,   35,   34
  17,  395,  396,  414,  413,   17,   18,   36,   35
  18,  397,  398,  416,  415,   19,   20,   38,   37
  19,  398,  399,  417,  416,   20,   21,   39,   38
  20,  399,  400,  418,  417,   21,   22,   40,   39
** ... 5760 like lines cut
*Nset, nset=_PickedSet2, internal, generate
    1,  6804,     1
*Elset, elset=_PickedSet2, internal, generate
    1,  5780,     1
** Section: IN718_Section
*Solid Section, elset=_PickedSet2, material=IN718
,
*End Instance
**  
*Nset, nset=All_Set, instance=Block-1-1, generate
    1,  9261,     1
*Nset, nset=All_Set, instance=Block-2-1, generate
    1,  6804,     1
*Elset, elset=All_Set, instance=Block-1-1, generate
    1,  8000,     1
*Elset, elset=All_Set, instance=Block-2-1, generate
    1,  5780,     1
*Elset, elset=boxSectionSet, instance=Block-1-1, generate
   2,  152,    1
*Elset, elset=test_element_set, instance=Block-2-1
  154,  155,  156,  157,  158,  159,  160,  161,  162,  163,  171,  172,  173,  174,  175,  176
  177,  178,  179,  180,  181,  188,  189,  190,  191,  192,  193,  194,  195,  196,  197,  198
  205,  206,  207,  208,  209,  210,  211,  212,  213,  214,  215,  216,  222,  223,  224,  225
  226,  227,  228,  229,  230,  231,  232,  233,  239,  240,  241,  242,  243,  244,  245,  246
  247,  248,  249,  250,  256,  257,  258,  259,  260,  261,  262,  263,  264,  265,  266,  267
  268,  273,  274,  275,  276,  277,  278,  279,  280,  281,  282,  283,  284,  285,  290,  291
  292,  293,  294,  295,  296,  297,  298,  299,  300,  301,  302,  307,  308,  309,  310,  311
  312,  313,  314,  315,  316,  317,  318,  319,  320,  324,  325,  326,  327,  328,  329,  330
  331,  332,  333,  334,  335,  336,  337,  511,  512,  513,  514,  515,  516,  517,  518,  519
  520,  521,  528,  529,  530,  531,  532,  533,  534,  535,  536,  537,  538,  539,  545,  546
  547,  548,  549,  550,  551,  552,  553,  554,  555,  556,  562,  563,  564,  565,  566,  567
  568,  569,  570,  571,  572,  573,  579,  580,  581,  582,  583,  584,  585,  586,  587,  588
  589,  590,  591,  596,  597,  598,  599,  600,  601,  602,  603,  604,  605,  606,  607,  608
  613,  614,  615,  616,  617,  618,  619,  620,  621,  622,  623,  624,  625,  630,  631,  632
  633,  634,  635,  636,  637,  638,  639,  640,  641,  642,  643,  647,  648,  649,  650,  651
  652,  653,  654,  655,  656,  657,  658,  659,  660,  664,  665,  666,  667,  668,  669,  670
  671,  672,  673,  674,  675,  676,  677,  868,  869,  870,  871,  872,  873,  874,  875,  876
  877,  878,  879,  885,  886,  887,  888,  889,  890,  891,  892,  893,  894,  895,  896,  902
  903,  904,  905,  906,  907,  908,  909,  910,  911,  912,  913,  914,  919,  920,  921,  922
  923,  924,  925,  926,  927,  928,  929,  930,  931,  936,  937,  938,  939,  940,  941,  942
** ... 37 like lines cut
*Nset, nset=_PickedSet40, internal, instance=Block-1-1, generate
    1,  9261,     1
*Nset, nset=_PickedSet40, internal, instance=Block-2-1, generate
    1,  6804,     1
*Elset, elset=_PickedSet40, internal, instance=Block-1-1, generate
    1,  8000,     1
*Elset, elset=_PickedSet40, internal, instance=Block-2-1, generate
    1,  5780,     1
*Nset, nset=_PickedSet58, internal, instance=Block-1-1, generate
    1,  9241,    21
*Elset, elset=_PickedSet58, internal, instance=Block-1-1, generate
    1,  7981,    20
*Elset, elset=_Heat_Flux_Surface_S2, internal, instance=Block-1-1, generate
   1,  400,    1
*Surface, type=ELEMENT, name=Heat_Flux_Surface
_Heat_Flux_Surface_S2, S2
*Elset, elset=_Radiation_Surface_S1, internal, instance=Block-1-1, generate
 7601,  8000,     1
*Elset, elset=_Radiation_Surface_S6, internal, instance=Block-1-1, generate
    1,  7981,    20
*Elset, elset=_Radiation_Surface_S6, internal, instance=Block-2-1, generate
    1,  5764,    17
*Elset, elset=_Radiation_Surface_S4, internal, instance=Block-1-1, generate
   20,  8000,    20
*Elset, elset=_Radiation_Surface_S3, internal, instance=Block-1-1
    1,    2,    3,    4,    5,    6,    7,    8,    9,   10,   11,   12,   13,   14,   15,   16
   17,   18,   19,   20,  401,  402,  403,  404,  405,  406,  407,  408,  409,  410,  411,  412
  413,  414,  415,  416,  417,  418,  419,  420,  801,  802,  803,  804,  805,  806,  807,  808
  809,  810,  811,  812,  813,  814,  815,  816,  817,  818,  819,  820, 1201, 1202, 1203, 1204
 1205, 1206, 1207, 1208, 1209, 1210, 1211, 1212, 1213, 1214, 1215, 1216, 1217, 1218, 1219, 1220
 1601, 1602, 1603, 1604, 1605, 1606, 1607, 1608, 1609, 1610, 1611, 1612, 1613, 1614, 1615, 1616
 1617, 1618, 1619, 1620, 2001, 2002, 2003, 2004, 2005, 2006, 2007, 2008, 2009, 2010, 2011, 2012
 2013, 2014, 2015, 2016, 2017, 2018, 2019, 2020, 2401, 2402, 2403, 2404, 2405, 2406, 2407, 2408
 2409, 2410, 2411, 2412, 2413, 2414, 2415, 2416, 2417, 2418, 2419, 2420, 2801, 2802, 2803, 2804
 2805, 2806, 2807, 2808, 2809, 2810, 2811, 2812, 2813, 2814, 2815, 2816, 2817, 2818, 2819, 2820
 3201, 3202, 3203, 3204, 3205, 3206, 3207, 3208, 3209, 3210, 3211, 3212, 3213, 3214, 3215, 3216
 3217, 3218, 3219, 3220, 3601, 3602, 3603, 3604, 3605, 3606, 3607, 3608, 3609, 3610, 3611, 3612
 3613, 3614, 3615, 3616, 3617, 3618, 3619, 3620, 4001, 4002, 4003, 4004, 4005, 4006, 4007, 4008
 4009, 4010, 4011, 4012, 4013, 4014, 4015, 4016, 4017, 4018, 4019, 4020, 4401, 4402, 4403, 4404
 4405, 4406, 4407, 4408, 4409, 4410, 4411, 4412, 4413, 4414, 4415, 4416, 4417, 4418, 4419, 4420
 4801, 4802, 4803, 4804, 4805, 4806, 4807, 4808, 4809, 4810, 4811, 4812, 4813, 4814, 4815, 4816
 4817, 4818, 4819, 4820, 5201, 5202, 5203, 5204, 5205, 5206, 5207, 5208, 5209, 5210, 5211, 5212
 5213, 5214, 5215, 5216, 5217, 5218, 5219, 5220, 5601, 5602, 5603, 5604, 5605, 5606, 5607, 5608
 5609, 5610, 5611, 5612, 5613, 5614, 5615, 5616, 5617, 5618, 5619, 5620, 6001, 6002, 6003, 6004
 6005, 6006, 6007, 6008, 6009, 6010, 6011, 6012, 6013, 6014, 6015, 6016, 6017, 6018, 6019, 6020
** ... 5 like lines cut
*Surface, type=ELEMENT, name=Radiation_Surface
_Radiation_Surface_S1, S1
_Radiation_Surface_S6, S6
_Radiation_Surface_S4, S4
_Radiation_Surface_S3, S3
*Elset, elset=__PickedSurf42_S5, internal, instance=Block-1-1
  381,  382,  383,  384,  385,  386,  387,  388,  389,  390,  391,  392,  393,  394,  395,  396
  397,  398,  399,  400,  781,  782,  783,  784,  785,  786,  787,  788,  789,  790,  791,  792
  793,  794,  795,  796,  797,  798,  799,  800, 1181, 1182, 1183, 1184, 1185, 1186, 1187, 1188
 1189, 1190, 1191, 1192, 1193, 1194, 1195, 1196, 1197, 1198, 1199, 1200, 1581, 1582, 1583, 1584
 1585, 1586, 1587, 1588, 1589, 1590, 1591, 1592, 1593, 1594, 1595, 1596, 1597, 1598, 1599, 1600
 1981, 1982, 1983, 1984, 1985, 1986, 1987, 1988, 1989, 1990, 1991, 1992, 1993, 1994, 1995, 1996
 1997, 1998, 1999, 2000, 2381, 2382, 2383, 2384, 2385, 2386, 2387, 2388, 2389, 2390, 2391, 2392
 2393, 2394, 2395, 2396, 2397, 2398, 2399, 2400, 2781, 2782, 2783, 2784, 2785, 2786, 2787, 2788
 2789, 2790, 2791, 2792, 2793, 2794, 2795, 2796, 2797, 2798, 2799, 2800, 3181, 3182, 3183, 3184
 3185, 3186, 3187, 3188, 3189, 3190, 3191, 3192, 3193, 3194, 3195, 3196, 3197, 3198, 3199, 3200
 3581, 3582, 3583, 3584, 3585, 3586, 3587, 3588, 3589, 3590, 3591, 3592, 3593, 3594, 3595, 3596
 3597, 3598, 3599, 3600, 3981, 3982, 3983, 3984, 3985, 3986, 3987, 3988, 3989, 3990, 3991, 3992
 3993, 3994, 3995, 3996, 3997, 3998, 3999, 4000, 4381, 4382, 4383, 4384, 4385, 4386, 4387, 4388
 4389, 4390, 4391, 4392, 4393, 4394, 4395, 4396, 4397, 4398, 4399, 4400, 4781, 4782, 4783, 4784
 4785, 4786, 4787, 4788, 4789, 4790, 4791, 4792, 4793, 4794, 4795, 4796, 4797, 4798, 4799, 4800
 5181, 5182, 5183, 5184, 5185, 5186, 5187, 5188, 5189, 5190, 5191, 5192, 5193, 5194, 5195, 5196
 5197, 5198, 5199, 5200, 5581, 5582, 5583, 5584, 5585, 5586, 5587, 5588, 5589, 5590, 5591, 5592
 5593, 5594, 5595, 5596, 5597, 5598, 5599, 5600, 5981, 5982, 5983, 5984, 5985, 5986, 5987, 5988
 5989, 5990, 5991, 5992, 5993, 5994, 5995, 5996, 5997, 5998, 5999, 6000, 6381, 6382, 6383, 6384
 6385, 6386, 6387, 6388, 6389, 6390, 6391, 6392, 6393, 6394, 6395, 6396, 6397, 6398, 6399, 6400
** ... 5 like lines cut
*Surface, type=ELEMENT, name=_PickedSurf42, internal
__PickedSurf42_S5, S5
*Elset, elset=__PickedSurf43_S3, internal, instance=Block-2-1
    1,    2,    3,    4,    5,    6,    7,    8,    9,   10,   11,   12,   13,   14,   15,   16
   17,  341,  342,  343,  344,  345,  346,  347,  348,  349,  350,  351,  352,  353,  354,  355
  356,  357,  681,  682,  683,  684,  685,  686,  687,  688,  689,  690,  691,  692,  693,  694
  695,  696,  697, 1021, 1022, 1023, 1024, 1025, 1026, 1027, 1028, 1029, 1030, 1031, 1032, 1033
 1034, 1035, 1036, 1037, 1361, 1362, 1363, 1364, 1365, 1366, 1367, 1368, 1369, 1370, 1371, 1372
 1373, 1374, 1375, 1376, 1377, 1701, 1702, 1703, 1704, 1705, 1706, 1707, 1708, 1709, 1710, 1711
 1712, 1713, 1714, 1715, 1716, 1717, 2041, 2042, 2043, 2044, 2045, 2046, 2047, 2048, 2049, 2050
 2051, 2052, 2053, 2054, 2055, 2056, 2057, 2381, 2382, 2383, 2384, 2385, 2386, 2387, 2388, 2389
 2390, 2391, 2392, 2393, 2394, 2395, 2396, 2397, 2721, 2722, 2723, 2724, 2725, 2726, 2727, 2728
 2729, 2730, 2731, 2732, 2733, 2734, 2735, 2736, 2737, 3061, 3062, 3063, 3064, 3065, 3066, 3067
 3068, 3069, 3070, 3071, 3072, 3073, 3074, 3075, 3076, 3077, 3401, 3402, 3403, 3404, 3405, 3406
 3407, 3408, 3409, 3410, 3411, 3412, 3413, 3414, 3415, 3416, 3417, 3741, 3742, 3743, 3744, 3745
 3746, 3747, 3748, 3749, 3750, 3751, 3752, 3753, 3754, 3755, 3756, 3757, 4081, 4082, 4083, 4084
 4085, 4086, 4087, 4088, 4089, 4090, 4091, 4092, 4093, 4094, 4095, 4096, 4097, 4421, 4422, 4423
 4424, 4425, 4426, 4427, 4428, 4429, 4430, 4431, 4432, 4433, 4434, 4435, 4436, 4437, 4761, 4762
 4763, 4764, 4765, 4766, 4767, 4768, 4769, 4770, 4771, 4772, 4773, 4774, 4775, 4776, 4777, 5101
 5102, 5103, 5104, 5105, 5106, 5107, 5108, 5109, 5110, 5111, 5112, 5113, 5114, 5115, 5116, 5117
 5441, 5442, 5443, 5444, 5445, 5446, 5447, 5448, 5449, 5450, 5451, 5452, 5453, 5454, 5455, 5456
 5457,
*Surface, type=ELEMENT, name=_PickedSurf43, internal
__PickedSurf43_S3, S3
*End Assembly
*Amplitude, name=Heat_Transfer_Amp, time=TOTAL TIME
             0.,              0.,             0.5,              1.,             10.,              1.,             20.,              0.
            75.,              0.
** 
** MATERIALS
** 
*Material, name=IN718
*Conductivity
30.,
*Density
7850.,
*Specific Heat
720.,
** 
** INTERACTION PROPERTIES
** 
*Surface Interaction, name="Heat Contact"
1.,
*Gap Conductance
300.,    0.
  0., 1e-06
** 
** PHYSICAL CONSTANTS
** 
*Physical Constants, absolute zero=0., stefan boltzmann=5.67037e-08
** 
** PREDEFINED FIELDS
** 
** Name: Predefined Heat   Type: Temperature
*Initial Conditions, type=TEMPERATURE
_PickedSet40, 500.
** 
** INTERACTIONS
** 
** Interaction: Surface_Contact
*Contact Pair, interaction="Heat Contact", type=SURFACE TO SURFACE
_PickedSurf43, _PickedSurf42
** ----------------------------------------------------------------
** 
** STEP: Heat_Transfer
** 
*Step, name=Heat_Transfer, nlgeom=NO, inc=2000
*Heat Transfer, end=SS, deltmx=100.
0.01, 50., 0.001, 1., 0.01
** 
** BOUNDARY CONDITIONS
** 
** Name: BC-1 Type: Temperature
*Boundary
_PickedSet58, 11, 11, 750.
** 
** LOADS
** 
** Name: Heat_Flux   Type: Surface heat flux
*Dsflux, amplitude=Heat_Transfer_Amp
Heat_Flux_Surface, S, 5e+06
** 
** INTERACTIONS
** 
** Interaction: Deactivate_Element
*Model Change, remove
test_element_set, 
** Interaction: Python_Test
*Model Change, remove
test_element_set, 
** Interaction: Surface_Radiation
*Sradiate
Radiation_Surface, R, 1000., 0.06
** 
** OUTPUT REQUESTS
** 
*Restart, write, frequency=0
** 
** FIELD OUTPUT: F-Output-1
** 
*Output, field, variable=PRESELECT
*Output, history, frequency=0
*End Step
